# ----- Rotor performance tables for the OpenFAST_IO Turbine wind turbine ----- 
# ------------ Written on Sep-05-25 using the ROSCO toolbox ------------ 

# Pitch angle vector, 20 entries - x axis (matrix columns) (deg)
-5.0   -3.158   -1.316   0.5263   2.368   4.211   6.053   7.895   9.737   11.58   13.42   15.26   17.11   18.95   20.79   22.63   24.47   26.32   28.16   30.0   
# TSR vector, 20 entries - y axis (matrix rows) (-)
2.0    2.526    3.053    3.579    4.105    4.632    5.158    5.684    6.211    6.737    7.263    7.789    8.316    8.842    9.368    9.895    10.42    10.95    11.47    12.0    
# Wind speed vector - z axis (m/s)
11.51    

# Power coefficient

0.003681   0.007026   0.010688   0.014686   0.018753   0.022706   0.026606   0.030573   0.034684   0.038848   0.042864   0.046472   0.049218   0.050798   0.051272   0.050899   0.049920   0.048481   0.046572   0.044119   
0.014076   0.020937   0.027574   0.034101   0.040594   0.047295   0.054232   0.061025   0.067141   0.071582   0.073868   0.074411   0.073715   0.072119   0.069815   0.066753   0.062761   0.057735   0.051282   0.043406   
0.032611   0.042771   0.052683   0.062934   0.073723   0.084345   0.093594   0.099602   0.102308   0.102673   0.101460   0.099052   0.095517   0.090603   0.084136   0.075666   0.065147   0.052944   0.039210   0.024460   
0.058253   0.072686   0.088155   0.104113   0.118870   0.129254   0.134461   0.136035   0.135307   0.132871   0.128629   0.122264   0.113283   0.101256   0.086729   0.070083   0.051750   0.032090   0.011628   -0.008896   
0.091670   0.113588   0.135912   0.155229   0.167054   0.172509   0.174002   0.173010   0.169484   0.162867   0.152239   0.137369   0.119176   0.098440   0.075798   0.051483   0.025674   -0.001076   -0.027801   -0.052918   
0.135781   0.165912   0.191367   0.206446   0.213607   0.216344   0.215866   0.211385   0.201319   0.185214   0.164402   0.140285   0.113801   0.085358   0.055003   0.022715   -0.011026   -0.045034   -0.077165   -0.104678   
0.190232   0.224685   0.245700   0.256559   0.262081   0.263149   0.257589   0.243431   0.222209   0.196177   0.166833   0.134957   0.100876   0.064506   0.025598   -0.015617   -0.057924   -0.098776   -0.134549   -0.163783   
0.251036   0.281796   0.298912   0.309053   0.312987   0.306473   0.288944   0.263908   0.233838   0.200019   0.163242   0.123837   0.081672   0.036316   -0.012399   -0.063544   -0.114567   -0.161140   -0.199572   -0.231849   
0.310037   0.336739   0.353875   0.362094   0.355736   0.336695   0.309837   0.277259   0.240117   0.199264   0.155130   0.107651   0.056319   0.000605   -0.059176   -0.121024   -0.180386   -0.231535   -0.273405   -0.310399   
0.364422   0.391134   0.405574   0.401154   0.383576   0.357642   0.324886   0.286294   0.242767   0.194952   0.142987   0.086438   0.024622   -0.042859   -0.114936   -0.187846   -0.254978   -0.310541   -0.357325   -0.400244   
0.412268   0.433718   0.433843   0.422555   0.402187   0.373077   0.336109   0.292288   0.242574   0.187466   0.126847   0.060062   -0.013646   -0.094319   -0.179800   -0.263937   -0.338276   -0.399135   -0.452405   -0.501582   
0.431867   0.441478   0.441939   0.433222   0.414410   0.384523   0.344483   0.295881   0.239859   0.176878   0.106634   0.028357   -0.058714   -0.154047   -0.253815   -0.349312   -0.430802   -0.498303   -0.559352   -0.614615   
0.416327   0.435860   0.442974   0.438090   0.421680   0.392684   0.350518   0.297354   0.234724   0.163167   0.082248   -0.008859   -0.110826   -0.222312   -0.337137   -0.444097   -0.533309   -0.608919   -0.678507   -0.739669   
0.392867   0.421243   0.438836   0.439285   0.425516   0.397868   0.354432   0.296811   0.227207   0.146285   0.053577   -0.051784   -0.170246   -0.299335   -0.429996   -0.548575   -0.646525   -0.731696   -0.810115   -0.877370   
0.366570   0.400740   0.428473   0.437147   0.426776   0.400399   0.356298   0.294311   0.217313   0.126178   0.020494   -0.100631   -0.237259   -0.385345   -0.532665   -0.663235   -0.771182   -0.867217   -0.954589   -1.028616   
0.337059   0.377536   0.411833   0.431226   0.425790   0.400757   0.356151   0.289894   0.205028   0.102782   -0.017144   -0.155622   -0.312166   -0.480622   -0.645452   -0.788663   -0.907962   -1.015949   -1.112549   -1.194381   
0.303814   0.351607   0.391775   0.420923   0.422625   0.399235   0.354016   0.283591   0.190338   0.076017   -0.059493   -0.216995   -0.395267   -0.585477   -0.768689   -0.925425   -1.057480   -1.178375   -1.284690   -1.375708   
0.266531   0.322831   0.369537   0.406109   0.417135   0.396089   0.349985   0.275426   0.173216   0.045796   -0.106721   -0.285000   -0.486848   -0.700242   -0.902740   -1.074069   -1.220331   -1.355082   -1.471720   -1.573740   
0.225297   0.290902   0.345073   0.388072   0.408971   0.391369   0.344249   0.265416   0.153626   0.012018   -0.159007   -0.359896   -0.587201   -0.825270   -1.048013   -1.235152   -1.397159   -1.546668   -1.674369   -1.789621   
0.180622   0.255624   0.318280   0.367889   0.397920   0.385119   0.336937   0.253565   0.131523   -0.025427   -0.216539   -0.441950   -0.696628   -0.960921   -1.204953   -1.409242   -1.588634   -1.753723   -1.893423   -2.024452   


#  Thrust coefficient

0.060318   0.060104   0.060363   0.061020   0.061719   0.062317   0.062932   0.063710   0.064738   0.065952   0.067203   0.068273   0.068728   0.068283   0.066983   0.065015   0.062566   0.059796   0.056657   0.053068   
0.080143   0.081899   0.083422   0.084951   0.086623   0.088683   0.091187   0.093851   0.096234   0.097390   0.096847   0.094937   0.092019   0.088358   0.084193   0.079472   0.073988   0.067647   0.059994   0.051036   
0.109255   0.112030   0.114871   0.118339   0.122676   0.127367   0.131393   0.132958   0.131907   0.128956   0.124656   0.119401   0.113362   0.106258   0.097892   0.087722   0.075656   0.062106   0.047284   0.031773   
0.146395   0.150982   0.157049   0.164283   0.171384   0.175359   0.175223   0.172070   0.166916   0.160395   0.152593   0.143187   0.131568   0.117133   0.100429   0.081877   0.061990   0.041250   0.020276   -0.000134   
0.192594   0.201760   0.212537   0.222083   0.225885   0.224448   0.219562   0.212615   0.203839   0.192761   0.178239   0.159785   0.138320   0.114659   0.089542   0.063357   0.036446   0.009487   -0.016497   -0.039966   
0.251201   0.266169   0.278988   0.283625   0.281579   0.275727   0.267458   0.256251   0.240297   0.218734   0.192856   0.164128   0.133613   0.101853   0.069096   0.035540   0.001840   -0.030759   -0.060217   -0.084034   
0.323614   0.341440   0.348623   0.347205   0.341458   0.332475   0.318106   0.295687   0.266606   0.233274   0.197399   0.159897   0.121234   0.081556   0.040900   -0.000250   -0.040579   -0.077688   -0.108313   -0.131243   
0.407887   0.420330   0.421391   0.416974   0.408137   0.389739   0.360390   0.323942   0.283381   0.240285   0.195586   0.149717   0.102775   0.054677   0.005601   -0.043320   -0.089649   -0.129521   -0.159732   -0.182317   
0.497345   0.503409   0.502092   0.494257   0.471818   0.435784   0.392449   0.344829   0.294487   0.242408   0.189068   0.134558   0.078748   0.021548   -0.036380   -0.092986   -0.144194   -0.185053   -0.214808   -0.237870   
0.591918   0.595782   0.590757   0.564584   0.522637   0.472972   0.418672   0.361259   0.301768   0.240798   0.178499   0.114748   0.049362   -0.017564   -0.084668   -0.148448   -0.203220   -0.244139   -0.273969   -0.297845   
0.697214   0.696936   0.666791   0.619985   0.565178   0.505105   0.441233   0.374638   0.306104   0.235940   0.164113   0.090453   0.014780   -0.062414   -0.138822   -0.209051   -0.266062   -0.306989   -0.337473   -0.361622   
0.811027   0.775936   0.724963   0.666331   0.602540   0.533915   0.461253   0.385689   0.307880   0.228021   0.146054   0.061799   -0.024836   -0.112779   -0.198349   -0.274240   -0.332604   -0.373830   -0.405267   -0.428617   
0.890890   0.838433   0.776268   0.708213   0.636343   0.560284   0.479337   0.394735   0.307255   0.217165   0.124430   0.028899   -0.069332   -0.168425   -0.262865   -0.343597   -0.402928   -0.444803   -0.476988   -0.498405   
0.960007   0.895138   0.824607   0.748115   0.668103   0.584652   0.495743   0.401906   0.304339   0.203470   0.099340   -0.008143   -0.118558   -0.229084   -0.332075   -0.416867   -0.477103   -0.519924   -0.552223   -0.570851   
1.027567   0.949634   0.870697   0.786944   0.698753   0.607346   0.510552   0.407294   0.299219   0.187022   0.070872   -0.049223   -0.172386   -0.294512   -0.405743   -0.493980   -0.555208   -0.599115   -0.630730   -0.646043   
1.095276   1.004533   0.915104   0.824832   0.728683   0.628755   0.523807   0.410974   0.291976   0.167902   0.039109   -0.094247   -0.230698   -0.364526   -0.483682   -0.574953   -0.637290   -0.682222   -0.712453   -0.724127   
1.163834   1.060492   0.959603   0.861623   0.758007   0.649122   0.535539   0.413017   0.282683   0.146184   0.004126   -0.143131   -0.293383   -0.438979   -0.565743   -0.659788   -0.723347   -0.769110   -0.797393   -0.805277   
1.233571   1.117795   1.005030   0.897269   0.786688   0.668665   0.545838   0.413491   0.271409   0.121938   -0.034013   -0.195800   -0.360329   -0.517758   -0.651813   -0.748478   -0.813367   -0.859740   -0.885568   -0.889721   
1.304487   1.176473   1.051478   0.932468   0.814548   0.687462   0.554879   0.412458   0.258219   0.095221   -0.075252   -0.252190   -0.431440   -0.600768   -0.741822   -0.841028   -0.907384   -0.954084   -0.977011   -0.977651   
1.375716   1.236435   1.098951   0.967880   0.841482   0.705579   0.562794   0.409979   0.243170   0.066087   -0.119543   -0.312249   -0.506634   -0.687936   -0.835737   -0.937453   -1.005454   -1.052108   -1.071794   -1.069197   


# Torque coefficient

0.001845   0.003521   0.005357   0.007361   0.009399   0.011381   0.013335   0.015324   0.017384   0.019472   0.021484   0.023293   0.024669   0.025461   0.025699   0.025512   0.025021   0.024300   0.023343   0.022113   
0.005585   0.008308   0.010942   0.013531   0.016108   0.018767   0.021519   0.024215   0.026642   0.028404   0.029311   0.029526   0.029250   0.028617   0.027703   0.026488   0.024904   0.022909   0.020349   0.017224   
0.010709   0.014045   0.017300   0.020667   0.024210   0.027698   0.030735   0.032708   0.033597   0.033716   0.033318   0.032527   0.031367   0.029753   0.027629   0.024848   0.021393   0.017386   0.012876   0.008032   
0.016316   0.020359   0.024692   0.029161   0.033295   0.036203   0.037662   0.038103   0.037899   0.037216   0.036028   0.034246   0.031730   0.028361   0.024292   0.019630   0.014495   0.008988   0.003257   -0.002492   
0.022384   0.027736   0.033188   0.037905   0.040792   0.042124   0.042489   0.042246   0.041385   0.039770   0.037174   0.033543   0.029101   0.024038   0.018509   0.012571   0.006269   -0.000263   -0.006788   -0.012922   
0.029388   0.035909   0.041419   0.044682   0.046232   0.046825   0.046721   0.045751   0.043573   0.040087   0.035583   0.030363   0.024631   0.018475   0.011905   0.004916   -0.002386   -0.009747   -0.016701   -0.022656   
0.036972   0.043668   0.047752   0.049862   0.050936   0.051143   0.050063   0.047311   0.043186   0.038127   0.032424   0.026229   0.019605   0.012537   0.004975   -0.003035   -0.011257   -0.019197   -0.026150   -0.031831   
0.044272   0.049696   0.052715   0.054503   0.055197   0.054048   0.050957   0.046542   0.041239   0.035274   0.028789   0.021839   0.014403   0.006405   -0.002187   -0.011206   -0.020205   -0.028418   -0.035196   -0.040888   
0.050043   0.054353   0.057119   0.058446   0.057419   0.054346   0.050011   0.044752   0.038757   0.032163   0.025040   0.017376   0.009090   0.000098   -0.009552   -0.019535   -0.029116   -0.037372   -0.044130   -0.050102   
0.054226   0.058201   0.060349   0.059692   0.057076   0.053217   0.048343   0.042601   0.036124   0.029009   0.021277   0.012862   0.003664   -0.006377   -0.017103   -0.027952   -0.037941   -0.046208   -0.053170   -0.059556   
0.056900   0.059861   0.059878   0.058320   0.055509   0.051491   0.046389   0.040341   0.033479   0.025874   0.017507   0.008290   -0.001883   -0.013018   -0.024815   -0.036428   -0.046688   -0.055088   -0.062440   -0.069227   
0.055578   0.056815   0.056874   0.055752   0.053331   0.049485   0.044332   0.038077   0.030868   0.022763   0.013723   0.003649   -0.007556   -0.019825   -0.032664   -0.044954   -0.055441   -0.064128   -0.071984   -0.079096   
0.050187   0.052542   0.053399   0.052810   0.050832   0.047337   0.042254   0.035845   0.028295   0.019669   0.009915   -0.001068   -0.013360   -0.026799   -0.040641   -0.053535   -0.064289   -0.073403   -0.081792   -0.089165   
0.044540   0.047757   0.049751   0.049802   0.048241   0.045107   0.040183   0.033650   0.025759   0.016585   0.006074   -0.005871   -0.019301   -0.033936   -0.048749   -0.062193   -0.073297   -0.082953   -0.091844   -0.099469   
0.039224   0.042880   0.045848   0.046776   0.045666   0.042844   0.038125   0.031492   0.023253   0.013501   0.002193   -0.010768   -0.025387   -0.041233   -0.056996   -0.070968   -0.082518   -0.092794   -0.102143   -0.110064   
0.034148   0.038248   0.041723   0.043688   0.043137   0.040601   0.036082   0.029369   0.020772   0.010413   -0.001737   -0.015766   -0.031626   -0.048692   -0.065391   -0.079900   -0.091986   -0.102926   -0.112713   -0.121003   
0.029225   0.033822   0.037686   0.040490   0.040654   0.038404   0.034054   0.027280   0.018309   0.007312   -0.005723   -0.020874   -0.038022   -0.056319   -0.073943   -0.089020   -0.101723   -0.113352   -0.123579   -0.132335   
0.024406   0.029561   0.033838   0.037187   0.038197   0.036270   0.032048   0.025221   0.015861   0.004194   -0.009772   -0.026097   -0.044580   -0.064121   -0.082663   -0.098352   -0.111745   -0.124084   -0.134764   -0.144106   
0.019684   0.025416   0.030149   0.033905   0.035731   0.034193   0.030077   0.023189   0.013422   0.001050   -0.013892   -0.031444   -0.051303   -0.072103   -0.091564   -0.107914   -0.122068   -0.135131   -0.146288   -0.156357   
0.015089   0.021354   0.026588   0.030732   0.033241   0.032172   0.028147   0.021182   0.010987   -0.002124   -0.018089   -0.036919   -0.058194   -0.080272   -0.100658   -0.117724   -0.132709   -0.146500   -0.158171   -0.169116   

